1

   Abaqus 2021                                  Date 30-Oct-2021   Time 15:37:34
   For use by Supplied by Team-SolidSQUAD under license from Dassault Systemes or its subsidiary.



                         The Abaqus Software is a product of:

                           Dassault Systemes SIMULIA Corp.
                           1301 Atwood Avenue, Suite 101W
                              Johnston, RI 02919, USA
 


                   The Abaqus Software is available only under license
                   from Dassault Systemes or its subsidiary and may be
                   used or reproduced only in accordance with the terms
                   of such license.
 
                          On machine Nomad-NB 
                          you are authorized to run
                          Abaqus/Explicit until 31-Dec-2055

                          Your site id is:  


 
                    For assistance or any other information you may
                    obtain contact information for your local office
                    from the world wide web at:

                      http://www.3ds.com/products/simulia/locations/

 
                * * * * * * * * * * * * * * * * * * * * * * * * * * * * * * 
                *                                                         * 
                *                   *****************                     * 
                *                   *  N O T I C E  *                     * 
                *                   *****************                     * 
                *                                                         * 
                *                                                         * 
                *                       Abaqus 2021                       * 
                *                                                         * 
                *          BUILD ID: 2020_03_06-18.20.37 167380           * 
                *                                                         * 
                *                                                         * 
                *  Please make sure you are using                         * 
                *  release Abaqus 2021 manuals                            * 
                *  plus the notes accompanying this release.              * 
                *                                                         * 
                *                                                         * 
                *                                                         * 
                *                                                         * 
                * * * * * * * * * * * * * * * * * * * * * * * * * * * * * * 


 



     PROCESSING PART, INSTANCE, AND ASSEMBLY INFORMATION
   *******************************************************


     END PROCESSING PART, INSTANCE, AND ASSEMBLY INFORMATION
   ***********************************************************




     OPTIONS BEING PROCESSED
   ***************************


  *Heading
  *Node
  *Element, type=C3D8R
  *Nset, nset=ASSEMBLY_RC-SLAB-1__PICKEDSET2
  *Elset, elset=ASSEMBLY_RC-SLAB-1__PICKEDSET2
  *Node
  *Nset, nset=ASSEMBLY_RF2
  *Nset, nset=ASSEMBLY_SET-2
  *Nset, nset=ASSEMBLY__PICKEDSET11
  *Nset, nset=ASSEMBLY__PICKEDSET6
  *Nset, nset=ASSEMBLY__PICKEDSET7
  *Elset, elset=ASSEMBLY_RF2
  *Elset, elset=ASSEMBLY__PICKEDSET7
  *Elset, elset=ASSEMBLY___PICKEDSURF10_S6
  *material, name=CDP_TOOL
  *damping
  *density
  *elastic
  *concretedamagedplasticity
  *concretecompressionhardening
  *concretetensionstiffening, type=DISPLACEMENT
  *concretecompressiondamage
  *concretetensiondamage, type=DISPLACEMENT
  *solidsection, elset=ASSEMBLY_RC-SLAB-1__PICKEDSET2, controls=EC-1, material=CDP_TOOL
  *sectioncontrols, name=EC-1, elementdeletion=YES
  *solidsection, elset=ASSEMBLY_RC-SLAB-1__PICKEDSET2, controls=EC-1, material=CDP_TOOL
  *surface, type=ELEMENT, name=ASSEMBLY__PICKEDSURF10
  *surface, type=ELEMENT, name=ASSEMBLY__PICKEDSURF10
  *boundary
  *solidsection, elset=ASSEMBLY_RC-SLAB-1__PICKEDSET2, controls=EC-1, material=CDP_TOOL
  *elementoutput, directions=YES
  *incidentwaveinteractionproperty, name=INTPROP-1, type=AIRBLAST
  *output, field, numberinterval=1000
  *output, history, variable=PRESELECT
  *Step, name=Step-1, nlgeom=YES
  *Step, name=Step-1, nlgeom=YES
  *dynamic, explicit
  *incidentwaveinteraction, conwep, property=INTPROP-1
  *output, field, numberinterval=1000
  *nodeoutput
  *elementoutput, directions=YES
  *contactoutput
  *output, history, variable=PRESELECT
  *endstep

 ***WARNING: OUTPUT REQUEST EVF IS NOT AVAILABLE FOR ELEMENT TYPE C3D8R

 ***WARNING: OUTPUT REQUEST PEEQVAVG IS NOT AVAILABLE FOR ELEMENT TYPE C3D8R

 ***WARNING: OUTPUT REQUEST PEVAVG IS NOT AVAILABLE FOR ELEMENT TYPE C3D8R

 ***WARNING: OUTPUT REQUEST SVAVG IS NOT AVAILABLE FOR ELEMENT TYPE C3D8R
  *surface, type=ELEMENT, name=ASSEMBLY__PICKEDSURF10
  *boundary
  *Step, name=Step-1, nlgeom=YES
  *dynamic, explicit
  *endstep



                            P R O B L E M   S I Z E


          NUMBER OF ELEMENTS IS                                  4800
          NUMBER OF NODES IS                                     6725
          NUMBER OF NODES DEFINED BY THE USER                    6725
          TOTAL NUMBER OF VARIABLES IN THE MODEL                20172
          (DEGREES OF FREEDOM PLUS MAX NO. OF ANY LAGRANGE MULTIPLIER
           VARIABLES. INCLUDE *PRINT,SOLVE=YES TO GET THE ACTUAL NUMBER.)



                              END OF USER INPUT PROCESSING



     JOB TIME SUMMARY
       USER TIME (SEC)      =  0.40000    
       SYSTEM TIME (SEC)    =  0.20000    
       TOTAL CPU TIME (SEC) =  0.60000    
       WALLCLOCK TIME (SEC) =          1
