*Heading
** Job name: RC5kgCWP Model name: Model-1
** Generated by: Abaqus/CAE 2021
*Preprint, echo=NO, model=NO, history=NO, contact=NO
**
** PARTS
**
*Part, name=RC-Slab
*End Part
**  
**
** ASSEMBLY
**
*Assembly, name=Assembly
**  
*Instance, name=RC-Slab-1, part=RC-Slab
         -1.,        -0.15,          -1.
*Node
      1,           2.,  0.150000006,           2.
      2,           2.,  0.100000001,           2.
      3,           2., 0.0500000007,           2.
      4,           2.,           0.,           2.
      5,           2.,  0.150000006,   1.95000005
      6,           2.,  0.100000001,   1.95000005
      7,           2., 0.0500000007,   1.95000005
      8,           2.,           0.,   1.95000005
      9,           2.,  0.150000006,   1.89999998
     10,           2.,  0.100000001,   1.89999998
     11,           2., 0.0500000007,   1.89999998
     12,           2.,           0.,   1.89999998
     13,           2.,  0.150000006,   1.85000002
     14,           2.,  0.100000001,   1.85000002
     15,           2., 0.0500000007,   1.85000002
     16,           2.,           0.,   1.85000002
     17,           2.,  0.150000006,   1.79999995
     18,           2.,  0.100000001,   1.79999995
     19,           2., 0.0500000007,   1.79999995
     20,           2.,           0.,   1.79999995
** ... 6704 like lines cut
*Element, type=C3D8R
   1,  165,  166,  170,  169,    1,    2,    6,    5
   2,  166,  167,  171,  170,    2,    3,    7,    6
   3,  167,  168,  172,  171,    3,    4,    8,    7
   4,  169,  170,  174,  173,    5,    6,   10,    9
   5,  170,  171,  175,  174,    6,    7,   11,   10
   6,  171,  172,  176,  175,    7,    8,   12,   11
   7,  173,  174,  178,  177,    9,   10,   14,   13
   8,  174,  175,  179,  178,   10,   11,   15,   14
   9,  175,  176,  180,  179,   11,   12,   16,   15
  10,  177,  178,  182,  181,   13,   14,   18,   17
  11,  178,  179,  183,  182,   14,   15,   19,   18
  12,  179,  180,  184,  183,   15,   16,   20,   19
  13,  181,  182,  186,  185,   17,   18,   22,   21
  14,  182,  183,  187,  186,   18,   19,   23,   22
  15,  183,  184,  188,  187,   19,   20,   24,   23
  16,  185,  186,  190,  189,   21,   22,   26,   25
  17,  186,  187,  191,  190,   22,   23,   27,   26
  18,  187,  188,  192,  191,   23,   24,   28,   27
  19,  189,  190,  194,  193,   25,   26,   30,   29
  20,  190,  191,  195,  194,   26,   27,   31,   30
** ... 4780 like lines cut
*Nset, nset=_PickedSet2, internal, generate
    1,  6724,     1
*Elset, elset=_PickedSet2, internal, generate
    1,  4800,     1
** Section: RC-Slab
*Solid Section, elset=_PickedSet2, controls=EC-1, material=CDP_Tool
,
*End Instance
**  
*Node
      1,           0.,           2.,           0.
*Nset, nset=RF2, instance=RC-Slab-1
    1,    2,    3,    4,    5,    6,    7,    8,    9,   10,   11,   12,   13,   14,   15,   16
   17,   18,   19,   20,   21,   22,   23,   24,   25,   26,   27,   28,   29,   30,   31,   32
   33,   34,   35,   36,   37,   38,   39,   40,   41,   42,   43,   44,   45,   46,   47,   48
   49,   50,   51,   52,   53,   54,   55,   56,   57,   58,   59,   60,   61,   62,   63,   64
   65,   66,   67,   68,   69,   70,   71,   72,   73,   74,   75,   76,   77,   78,   79,   80
   81,   82,   83,   84,   85,   86,   87,   88,   89,   90,   91,   92,   93,   94,   95,   96
   97,   98,   99,  100,  101,  102,  103,  104,  105,  106,  107,  108,  109,  110,  111,  112
  113,  114,  115,  116,  117,  118,  119,  120,  121,  122,  123,  124,  125,  126,  127,  128
  129,  130,  131,  132,  133,  134,  135,  136,  137,  138,  139,  140,  141,  142,  143,  144
  145,  146,  147,  148,  149,  150,  151,  152,  153,  154,  155,  156,  157,  158,  159,  160
  161,  162,  163,  164,  165,  166,  167,  168,  325,  326,  327,  328,  329,  330,  331,  332
  489,  490,  491,  492,  493,  494,  495,  496,  653,  654,  655,  656,  657,  658,  659,  660
  817,  818,  819,  820,  821,  822,  823,  824,  981,  982,  983,  984,  985,  986,  987,  988
 1145, 1146, 1147, 1148, 1149, 1150, 1151, 1152, 1309, 1310, 1311, 1312, 1313, 1314, 1315, 1316
 1473, 1474, 1475, 1476, 1477, 1478, 1479, 1480, 1637, 1638, 1639, 1640, 1641, 1642, 1643, 1644
 1801, 1802, 1803, 1804, 1805, 1806, 1807, 1808, 1965, 1966, 1967, 1968, 1969, 1970, 1971, 1972
 2129, 2130, 2131, 2132, 2133, 2134, 2135, 2136, 2293, 2294, 2295, 2296, 2297, 2298, 2299, 2300
 2457, 2458, 2459, 2460, 2461, 2462, 2463, 2464, 2621, 2622, 2623, 2624, 2625, 2626, 2627, 2628
 2785, 2786, 2787, 2788, 2789, 2790, 2791, 2792, 2949, 2950, 2951, 2952, 2953, 2954, 2955, 2956
 3113, 3114, 3115, 3116, 3117, 3118, 3119, 3120, 3277, 3278, 3279, 3280, 3281, 3282, 3283, 3284
** ... 20 like lines cut
*Elset, elset=RF2, instance=RC-Slab-1
    1,    2,    3,    4,    5,    6,    7,    8,    9,   10,   11,   12,   13,   14,   15,   16
   17,   18,   19,   20,   21,   22,   23,   24,   25,   26,   27,   28,   29,   30,   31,   32
   33,   34,   35,   36,   37,   38,   39,   40,   41,   42,   43,   44,   45,   46,   47,   48
   49,   50,   51,   52,   53,   54,   55,   56,   57,   58,   59,   60,   61,   62,   63,   64
   65,   66,   67,   68,   69,   70,   71,   72,   73,   74,   75,   76,   77,   78,   79,   80
   81,   82,   83,   84,   85,   86,   87,   88,   89,   90,   91,   92,   93,   94,   95,   96
   97,   98,   99,  100,  101,  102,  103,  104,  105,  106,  107,  108,  109,  110,  111,  112
  113,  114,  115,  116,  117,  118,  119,  120,  121,  122,  123,  238,  239,  240,  241,  242
  243,  358,  359,  360,  361,  362,  363,  478,  479,  480,  481,  482,  483,  598,  599,  600
  601,  602,  603,  718,  719,  720,  721,  722,  723,  838,  839,  840,  841,  842,  843,  958
  959,  960,  961,  962,  963, 1078, 1079, 1080, 1081, 1082, 1083, 1198, 1199, 1200, 1201, 1202
 1203, 1318, 1319, 1320, 1321, 1322, 1323, 1438, 1439, 1440, 1441, 1442, 1443, 1558, 1559, 1560
 1561, 1562, 1563, 1678, 1679, 1680, 1681, 1682, 1683, 1798, 1799, 1800, 1801, 1802, 1803, 1918
 1919, 1920, 1921, 1922, 1923, 2038, 2039, 2040, 2041, 2042, 2043, 2158, 2159, 2160, 2161, 2162
 2163, 2278, 2279, 2280, 2281, 2282, 2283, 2398, 2399, 2400, 2401, 2402, 2403, 2518, 2519, 2520
 2521, 2522, 2523, 2638, 2639, 2640, 2641, 2642, 2643, 2758, 2759, 2760, 2761, 2762, 2763, 2878
 2879, 2880, 2881, 2882, 2883, 2998, 2999, 3000, 3001, 3002, 3003, 3118, 3119, 3120, 3121, 3122
 3123, 3238, 3239, 3240, 3241, 3242, 3243, 3358, 3359, 3360, 3361, 3362, 3363, 3478, 3479, 3480
 3481, 3482, 3483, 3598, 3599, 3600, 3601, 3602, 3603, 3718, 3719, 3720, 3721, 3722, 3723, 3838
 3839, 3840, 3841, 3842, 3843, 3958, 3959, 3960, 3961, 3962, 3963, 4078, 4079, 4080, 4081, 4082
** ... 10 like lines cut
*Nset, nset=Set-2, instance=RC-Slab-1
 3361,
*Nset, nset=_PickedSet6, internal
 1,
*Nset, nset=_PickedSet7, internal, instance=RC-Slab-1
    1,    2,    3,    4,    5,    6,    7,    8,    9,   10,   11,   12,   13,   14,   15,   16
   17,   18,   19,   20,   21,   22,   23,   24,   25,   26,   27,   28,   29,   30,   31,   32
   33,   34,   35,   36,   37,   38,   39,   40,   41,   42,   43,   44,   45,   46,   47,   48
   49,   50,   51,   52,   53,   54,   55,   56,   57,   58,   59,   60,   61,   62,   63,   64
   65,   66,   67,   68,   69,   70,   71,   72,   73,   74,   75,   76,   77,   78,   79,   80
   81,   82,   83,   84,   85,   86,   87,   88,   89,   90,   91,   92,   93,   94,   95,   96
   97,   98,   99,  100,  101,  102,  103,  104,  105,  106,  107,  108,  109,  110,  111,  112
  113,  114,  115,  116,  117,  118,  119,  120,  121,  122,  123,  124,  125,  126,  127,  128
  129,  130,  131,  132,  133,  134,  135,  136,  137,  138,  139,  140,  141,  142,  143,  144
  145,  146,  147,  148,  149,  150,  151,  152,  153,  154,  155,  156,  157,  158,  159,  160
  161,  162,  163,  164,  165,  166,  167,  168,  325,  326,  327,  328,  329,  330,  331,  332
  489,  490,  491,  492,  493,  494,  495,  496,  653,  654,  655,  656,  657,  658,  659,  660
  817,  818,  819,  820,  821,  822,  823,  824,  981,  982,  983,  984,  985,  986,  987,  988
 1145, 1146, 1147, 1148, 1149, 1150, 1151, 1152, 1309, 1310, 1311, 1312, 1313, 1314, 1315, 1316
 1473, 1474, 1475, 1476, 1477, 1478, 1479, 1480, 1637, 1638, 1639, 1640, 1641, 1642, 1643, 1644
 1801, 1802, 1803, 1804, 1805, 1806, 1807, 1808, 1965, 1966, 1967, 1968, 1969, 1970, 1971, 1972
 2129, 2130, 2131, 2132, 2133, 2134, 2135, 2136, 2293, 2294, 2295, 2296, 2297, 2298, 2299, 2300
 2457, 2458, 2459, 2460, 2461, 2462, 2463, 2464, 2621, 2622, 2623, 2624, 2625, 2626, 2627, 2628
 2785, 2786, 2787, 2788, 2789, 2790, 2791, 2792, 2949, 2950, 2951, 2952, 2953, 2954, 2955, 2956
 3113, 3114, 3115, 3116, 3117, 3118, 3119, 3120, 3277, 3278, 3279, 3280, 3281, 3282, 3283, 3284
** ... 20 like lines cut
*Elset, elset=_PickedSet7, internal, instance=RC-Slab-1
    1,    2,    3,    4,    5,    6,    7,    8,    9,   10,   11,   12,   13,   14,   15,   16
   17,   18,   19,   20,   21,   22,   23,   24,   25,   26,   27,   28,   29,   30,   31,   32
   33,   34,   35,   36,   37,   38,   39,   40,   41,   42,   43,   44,   45,   46,   47,   48
   49,   50,   51,   52,   53,   54,   55,   56,   57,   58,   59,   60,   61,   62,   63,   64
   65,   66,   67,   68,   69,   70,   71,   72,   73,   74,   75,   76,   77,   78,   79,   80
   81,   82,   83,   84,   85,   86,   87,   88,   89,   90,   91,   92,   93,   94,   95,   96
   97,   98,   99,  100,  101,  102,  103,  104,  105,  106,  107,  108,  109,  110,  111,  112
  113,  114,  115,  116,  117,  118,  119,  120,  121,  122,  123,  238,  239,  240,  241,  242
  243,  358,  359,  360,  361,  362,  363,  478,  479,  480,  481,  482,  483,  598,  599,  600
  601,  602,  603,  718,  719,  720,  721,  722,  723,  838,  839,  840,  841,  842,  843,  958
  959,  960,  961,  962,  963, 1078, 1079, 1080, 1081, 1082, 1083, 1198, 1199, 1200, 1201, 1202
 1203, 1318, 1319, 1320, 1321, 1322, 1323, 1438, 1439, 1440, 1441, 1442, 1443, 1558, 1559, 1560
 1561, 1562, 1563, 1678, 1679, 1680, 1681, 1682, 1683, 1798, 1799, 1800, 1801, 1802, 1803, 1918
 1919, 1920, 1921, 1922, 1923, 2038, 2039, 2040, 2041, 2042, 2043, 2158, 2159, 2160, 2161, 2162
 2163, 2278, 2279, 2280, 2281, 2282, 2283, 2398, 2399, 2400, 2401, 2402, 2403, 2518, 2519, 2520
 2521, 2522, 2523, 2638, 2639, 2640, 2641, 2642, 2643, 2758, 2759, 2760, 2761, 2762, 2763, 2878
 2879, 2880, 2881, 2882, 2883, 2998, 2999, 3000, 3001, 3002, 3003, 3118, 3119, 3120, 3121, 3122
 3123, 3238, 3239, 3240, 3241, 3242, 3243, 3358, 3359, 3360, 3361, 3362, 3363, 3478, 3479, 3480
 3481, 3482, 3483, 3598, 3599, 3600, 3601, 3602, 3603, 3718, 3719, 3720, 3721, 3722, 3723, 3838
 3839, 3840, 3841, 3842, 3843, 3958, 3959, 3960, 3961, 3962, 3963, 4078, 4079, 4080, 4081, 4082
** ... 10 like lines cut
*Nset, nset=_PickedSet11, internal
 1,
*Elset, elset=__PickedSurf10_S6, internal, instance=RC-Slab-1, generate
    1,  4798,     3
*Surface, type=ELEMENT, name=_PickedSurf10, internal
__PickedSurf10_S6, S6
*End Assembly
** 
** ELEMENT CONTROLS
** 
*Section Controls, name=EC-1, ELEMENT DELETION=YES
1., 1., 1.
** 
** MATERIALS
** 
** ===================
** DamageStartCompression: 0.0001
** DamageStartTension: 0.0
** Ect: 36764.48285354899
** GF: 147.61736910785203
** Kc: 0.666
** MaterialName: Test
** Mu: 0.0001
** alphaDamping: 0.0
** betaDamping: 0.0
** compressionRecovery: 1.0
** compressionStressStrainOveride: None
** concfc: 50.0
** concfct: 3.6248283707881637
** concfctRatio: None
** concreteCompressionEnhancement: 1.0
** concreteModel: Concrete Damaged Plasticity
** crackRatioCompression: 0.5
** crackRatioTension: 0.2
** dilationAngle: 30.0
** eFlow: 0.1
** eb0ec0: 1.16
** ec1: 0.0024396940799999997
** includeCrushing: Crushing
** kEci_Ec1: 1.794754304
** maxDamageCompression: 1.0
** maxDamageTension: 1.0
** poissonsRatio: 0.2
** rho: 2400.0
** tensionRecovery: 0.0
** ===================
** 
*Material, name=CDP_Tool
*Damping
*Density
2400.,
*Elastic
 3.56426e+10, 0.2
*Concrete Damaged Plasticity
30.,    0.1,   1.16,  0.666, 0.0001
*Concrete Compression Hardening
 7.52058e+06,          0.
  1.7348e+07, 2.42773e-05
 1.96379e+07, 3.50315e-05
 2.18583e+07, 4.77349e-05
 2.40079e+07, 6.24267e-05
 2.60851e+07, 7.91474e-05
 2.80885e+07, 9.79384e-05
 3.00167e+07, 0.000118842
 3.18679e+07, 0.000141903
 3.36407e+07, 0.000167166
 3.53333e+07, 0.000194676
 3.69441e+07, 0.000224483
 3.84714e+07, 0.000256634
 3.99133e+07,  0.00029118
  4.1268e+07, 0.000328172
 4.25335e+07, 0.000367665
  4.3708e+07, 0.000409714
 4.47894e+07, 0.000454373
 4.57757e+07, 0.000501702
 4.66646e+07, 0.000551761
** ... 84 like lines cut
*Concrete Tension Stiffening, type=DISPLACEMENT
 3.62483e+06,          0.
 3.04486e+06, 2.44167e-05
 2.46488e+06, 4.88334e-05
 1.88491e+06, 7.32501e-05
 1.30494e+06, 9.76668e-05
     724966., 0.000122083
     690530., 0.000131194
     656094., 0.000140305
     621658., 0.000149416
     587222., 0.000158527
     552786., 0.000167638
     518350., 0.000176749
     483915.,  0.00018586
     449479., 0.000194971
     415043., 0.000204082
     380607., 0.000213193
     346171., 0.000222304
     311735., 0.000231415
     277299., 0.000240526
     242864., 0.000249637
** ... 40 like lines cut
*Concrete Compression Damage
        0.,          0.
        0., 2.42773e-05
        0., 3.50315e-05
        0., 4.77349e-05
        0., 6.24267e-05
        0., 7.91474e-05
        0., 9.79384e-05
 0.0175768, 0.000118842
 0.0365327, 0.000141903
 0.0549636, 0.000167166
 0.0729963, 0.000194676
 0.0907307, 0.000224483
  0.108247, 0.000256634
  0.125611,  0.00029118
  0.142876, 0.000328172
  0.160087, 0.000367665
  0.177283, 0.000409714
  0.194497, 0.000454373
  0.211757, 0.000501702
  0.229088, 0.000551761
** ... 84 like lines cut
*Concrete Tension Damage, type=DISPLACEMENT
       0.,          0.
 0.180505, 2.44167e-05
 0.340507, 4.88334e-05
 0.483312, 7.32501e-05
 0.611551, 9.76668e-05
 0.727345, 0.000122083
 0.745452, 0.000131194
 0.761958, 0.000140305
 0.777066, 0.000149416
 0.790946, 0.000158527
 0.803742, 0.000167638
 0.815576, 0.000176749
 0.826552,  0.00018586
 0.836762, 0.000194971
 0.846281, 0.000204082
 0.855179, 0.000213193
 0.863514, 0.000222304
 0.871337, 0.000231415
 0.878695, 0.000240526
 0.885628, 0.000249637
** ... 40 like lines cut
** 
** INTERACTION PROPERTIES
** 
*Incident Wave Interaction Property, name=IntProp-1, type=AIR BLAST
*CONWEP Charge Property
5., 1.
1., 1., 1.
** 
** BOUNDARY CONDITIONS
** 
** Name: BC-1 Type: Symmetry/Antisymmetry/Encastre
*Boundary
_PickedSet7, ENCASTRE
** ----------------------------------------------------------------
** 
** STEP: Step-1
** 
*Step, name=Step-1, nlgeom=YES
*Dynamic, Explicit
, 0.1
*Bulk Viscosity
0.06, 1.2
** 
** INTERACTIONS
** 
** Interaction: Int-1
*Incident Wave Interaction, CONWEP, property=IntProp-1
_PickedSurf10, _PickedSet11,   , 0., 1.
** 
** OUTPUT REQUESTS
** 
*Restart, write, number interval=1, time marks=NO
** 
** FIELD OUTPUT: F-Output-1
** 
*Output, field, number interval=1000
*Node Output
A, RF, U, V
*Element Output, directions=YES
DAMAGEC, DAMAGET, EVF, LE, PE, PEEQ, PEEQVAVG, PEVAVG, S, SVAVG
*Contact Output
CSDMG, CSTRESS
** 
** HISTORY OUTPUT: H-Output-1
** 
*Output, history, variable=PRESELECT
*End Step
